data_crystal

_cell_length_a 17.93090
_cell_length_b 17.93090
_cell_length_c 17.93090
_cell_angle_alpha 90.00000
_cell_angle_beta  90.00000
_cell_angle_gamma 90.00000

_symmetry_space_group_name_	'P 1'
_symmetry_space_group_name_H-M	'P 1'

loop_
_symmetry_equiv_pos_as_xyz
  x,y,z

loop_
_atom_site_label
_atom_site_type_symbol
_atom_site_fract_x
_atom_site_fract_y
_atom_site_fract_z
_atom_site_charge
Zr	Zr	0.36231 0.51117 0.01197 3.12800
O 	O 	0.45070 0.55900 0.06870 -0.74600
O 	O 	0.31060 0.62350 0.02400 -0.81500
O 	O 	0.42110 0.42110 0.07890 -0.60900
O 	O 	0.29080 0.40950 0.00860 -0.81900
O 	O 	0.41010 0.70820 0.02390 -0.36700
O 	O 	0.37560 0.31050 -0.00720 -0.38400
C 	C 	0.33980 0.68950 0.02410 0.35100
C 	C 	0.28710 0.75500 0.02500 -0.16100
H 	H 	0.30670 0.80420 0.02560 0.06100
C 	C 	0.31010 0.34010 0.00040 0.34900
C 	C 	0.24470 0.28720 0.00010 -0.16100
H 	H 	0.19530 0.30650 -0.00010 0.05600
O 	O 	0.18940 0.87650 0.02400 -0.79700
O 	O 	0.08990 0.79180 0.02390 -0.36100
C 	C 	0.16020 0.81050 0.02410 0.34900
C 	C 	0.21290 0.74500 0.02500 -0.15400
H 	H 	0.19330 0.69580 0.02560 0.05100
O 	O 	0.20920 0.09050 0.00860 -0.91300
O 	O 	0.12440 0.18950 -0.00720 -0.46900
C 	C 	0.18990 0.15990 0.00040 0.33000
C 	C 	0.25530 0.21280 0.00010 -0.16700
H 	H 	0.30470 0.19350 -0.00010 0.05500
Zr	Zr	0.13769 -0.01117 0.01197 3.10100
O 	O 	0.04930 -0.05900 0.06870 -0.90800
